
Note: No compatibility mode selected!


Circuit: ** sch_path:

Doing analysis at TEMP = 50.000000 and TNOM = 27.000000

Warning: Interpolated raw file data!


Initial Transient Solution
--------------------------

Node                                   Voltage
----                                   -------
net1                                         3
vinp                                         3
vinn                                         3
v3#branch                                    0
v2#branch                                    0
v1#branch                                    0


No. of Data Rows : 2001
Reset re-loads circuit ** sch_path:

Circuit: ** sch_path:

Doing analysis at TEMP = 50.000000 and TNOM = 27.000000


No. of Data Rows : 1
binary raw file "tracking_switches_tb.raw"
binary raw file "/home/gf180/Documents/gf180/gf180_work/PICO_contest/tracking_switches/xschem/simulation/test_sources.raw"
Doing analysis at TEMP = 50.000000 and TNOM = 27.000000

OP information in rawfile.

Total analysis time (seconds) = 0.001

Total elapsed time (seconds) = 0.087 

Total DRAM available = 7932.977 MB.
DRAM currently available = 6353.125 MB.
Maximum ngspice program size =   29.152 MB.
Current ngspice program size =   19.125 MB.

Shared ngspice pages =   10.125 MB.
Text (code) pages =    5.383 MB.
Stack = 0 bytes.
Library pages =    9.188 MB.

