
Note: No compatibility mode selected!


Circuit: ** sch_path:

